matpower5.1/case_ieee123_ug.m
function mpc = case_ieee123_ug
%   Power flow data for IEEE 123 bus test case, with ALL underground cables.
%   Please see CASEFORMAT for details on the case file format.
%
%	This testbed is distributed in the hope that it will be useful, but without any warranty.
%	We do request that publications in which this testbed is adopted, explicitly acknowledge that fact by citing:
%
%	S. Bolognani, S. Zampieri (2014)
%	"On the existence and linear approximation of the power flow solution in power distribution networks"
%	Preprint available at http://arxiv.org/abs/1403.5031

%% MATPOWER Case Format : Version 2
mpc.version = '2';

%%-----  Power Flow Data  -----%%
%% system MVA base
mpc.baseMVA = 1;

%% bus data
%	bus_i	type	Pd	Qd	Gs	Bs	area	Vm	Va	baseKV	zone	Vmax	Vmin
mpc.bus = [
	1	1	0.160	0.080	0.000	0.000	1	1	0	4.16	1	1.2	0.8	;
	2	1	0.020	0.010	0.000	0.000	1	1	0	4.16	1	1.2	0.8	;
	3	1	0.120	0.060	0.000	0.000	1	1	0	4.16	1	1.2	0.8	;
	4	1	0.100	0.050	0.000	0.000	1	1	0	4.16	1	1.2	0.8	;
	5	1	0.040	0.020	0.000	0.000	1	1	0	4.16	1	1.2	0.8	;
	6	1	0.040	0.020	0.000	0.000	1	1	0	4.16	1	1.2	0.8	;
	7	1	0.000	0.000	0.000	0.000	1	1	0	4.16	1	1.2	0.8	;
	8	1	0.020	0.010	0.000	0.000	1	1	0	4.16	1	1.2	0.8	;
	9	1	0.020	0.010	0.000	0.000	1	1	0	4.16	1	1.2	0.8	;
	10	1	0.040	0.020	0.000	0.000	1	1	0	4.16	1	1.2	0.8	;
	11	1	0.020	0.010	0.000	0.000	1	1	0	4.16	1	1.2	0.8	;
	12	1	0.040	0.020	0.000	0.000	1	1	0	4.16	1	1.2	0.8	;
	13	1	0.040	0.020	0.000	0.000	1	1	0	4.16	1	1.2	0.8	;
	14	1	0.075	0.035	0.000	0.000	1	1	0	4.16	1	1.2	0.8	;
	15	1	0.140	0.100	0.000	0.000	1	1	0	4.16	1	1.2	0.8	;
	16	1	0.075	0.035	0.000	0.000	1	1	0	4.16	1	1.2	0.8	;
	17	1	0.120	0.060	0.000	0.000	1	1	0	4.16	1	1.2	0.8	;
	18	1	0.120	0.060	0.000	0.000	1	1	0	4.16	1	1.2	0.8	;
	19	1	0.245	0.180	0.000	0.000	1	1	0	4.16	1	1.2	0.8	;
	20	1	0.040	0.020	0.000	0.000	1	1	0	4.16	1	1.2	0.8	;
	21	1	0.000	0.000	0.000	0.000	1	1	0	4.16	1	1.2	0.8	;
	22	1	0.040	0.020	0.000	0.000	1	1	0	4.16	1	1.2	0.8	;
	23	1	0.040	0.020	0.000	0.000	1	1	0	4.16	1	1.2	0.8	;
	24	1	0.060	0.030	0.000	0.000	1	1	0	4.16	1	1.2	0.8	;
	25	1	0.040	0.020	0.000	0.000	1	1	0	4.16	1	1.2	0.8	;
	26	1	0.020	0.010	0.000	0.000	1	1	0	4.16	1	1.2	0.8	;
	27	1	0.020	0.010	0.000	0.000	1	1	0	4.16	1	1.2	0.8	;
	28	1	0.080	0.040	0.000	0.000	1	1	0	4.16	1	1.2	0.8	;
	29	1	0.040	0.020	0.000	0.000	1	1	0	4.16	1	1.2	0.8	;
	30	1	0.040	0.020	0.000	0.000	1	1	0	4.16	1	1.2	0.8	;
	31	1	0.040	0.020	0.000	0.000	1	1	0	4.16	1	1.2	0.8	;
	32	1	0.040	0.020	0.000	0.000	1	1	0	4.16	1	1.2	0.8	;
	33	1	0.000	0.000	0.000	0.000	1	1	0	4.16	1	1.2	0.8	;
	34	1	0.040	0.020	0.000	0.000	1	1	0	4.16	1	1.2	0.8	;
	35	1	0.040	0.020	0.000	0.000	1	1	0	4.16	1	1.2	0.8	;
	36	1	0.040	0.020	0.000	0.000	1	1	0	4.16	1	1.2	0.8	;
	37	1	0.100	0.050	0.000	0.000	1	1	0	4.16	1	1.2	0.8	;
	38	1	0.080	0.040	0.000	0.000	1	1	0	4.16	1	1.2	0.8	;
	39	1	0.140	0.070	0.000	0.000	1	1	0	4.16	1	1.2	0.8	;
	40	1	0.080	0.040	0.000	0.000	1	1	0	4.16	1	1.2	0.8	;
	41	1	0.040	0.020	0.000	0.000	1	1	0	4.16	1	1.2	0.8	;
	42	1	0.040	0.020	0.000	0.000	1	1	0	4.16	1	1.2	0.8	;
	43	1	0.080	0.040	0.000	0.000	1	1	0	4.16	1	1.2	0.8	;
	44	1	0.040	0.020	0.000	0.000	1	1	0	4.16	1	1.2	0.8	;
	45	1	0.040	0.020	0.000	0.000	1	1	0	4.16	1	1.2	0.8	;
	46	1	0.040	0.020	0.000	0.000	1	1	0	4.16	1	1.2	0.8	;
	47	1	0.120	0.060	0.000	0.000	1	1	0	4.16	1	1.2	0.8	;
	48	1	0.020	0.010	0.000	0.000	1	1	0	4.16	1	1.2	0.8	;
	49	1	0.060	0.030	0.000	0.000	1	1	0	4.16	1	1.2	0.8	;
	50	1	0.040	0.020	0.000	0.000	1	1	0	4.16	1	1.2	0.8	;
	51	1	0.105	0.075	0.000	0.000	1	1	0	4.16	1	1.2	0.8	;
	52	1	0.210	0.150	0.000	0.000	1	1	0	4.16	1	1.2	0.8	;
	53	1	0.140	0.095	0.000	0.000	1	1	0	4.16	1	1.2	0.8	;
	54	1	0.040	0.020	0.000	0.000	1	1	0	4.16	1	1.2	0.8	;
	55	1	0.020	0.010	0.000	0.000	1	1	0	4.16	1	1.2	0.8	;
	56	3	0.000	0.000	0.000	0.000	1	1	0	4.16	1	1.2	0.8	;
];

%% generator data
%	bus	Pg	Qg	Qmax	Qmin	Vg	mBase	status	Pmax	Pmin	Pc1	Pc2	Qc1min	Qc1max	Qc2min	Qc2max	ramp_agc	ramp_10	ramp_30	ramp_q	apf
mpc.gen = [
	56	0	0	200	-200	1	1	1	200	-200	0	0	0	0	0	0	0	0	0	0	0;
];

%% branch data
%	fbus	tbus	r	x	b	rateA	rateB	rateC	ratio	angle	status	angmin	angmax
mpc.branch = [
	56	1	0.0044399273	0.0021154039	0	100	100	100	0	0	1	-360	360	;
	1	2	0.0033299455	0.0015865529	0	100	100	100	0	0	1	-360	360	;
	2	3	0.0022199637	0.0010577019	0	100	100	100	0	0	1	-360	360	;
	3	4	0.0033299455	0.0015865529	0	100	100	100	0	0	1	-360	360	;
	4	5	0.0044399273	0.0021154039	0	100	100	100	0	0	1	-360	360	;
	5	6	0.0022199637	0.0010577019	0	100	100	100	0	0	1	-360	360	;
	6	7	0.0013874773	0.0006610637	0	100	100	100	0	0	1	-360	360	;
	7	8	0.0030524500	0.0014543402	0	100	100	100	0	0	1	-360	360	;
	8	9	0.0030524500	0.0014543402	0	100	100	100	0	0	1	-360	360	;
	7	10	0.0038849364	0.0018509784	0	100	100	100	0	0	1	-360	360	;
	10	11	0.0083248637	0.0039663823	0	100	100	100	0	0	1	-360	360	;
	11	12	0.0027749546	0.0013221274	0	100	100	100	0	0	1	-360	360	;
	12	13	0.0019424682	0.0009254892	0	100	100	100	0	0	1	-360	360	;
	13	14	0.0038849364	0.0018509784	0	100	100	100	0	0	1	-360	360	;
	14	15	0.0047174228	0.0022476166	0	100	100	100	0	0	1	-360	360	;
	15	16	0.0036074409	0.0017187657	0	100	100	100	0	0	1	-360	360	;
	11	17	0.0038849364	0.0018509784	0	100	100	100	0	0	1	-360	360	;
	17	18	0.0030524500	0.0014543402	0	100	100	100	0	0	1	-360	360	;
	18	19	0.0022199637	0.0010577019	0	100	100	100	0	0	1	-360	360	;
	19	20	0.0044399273	0.0021154039	0	100	100	100	0	0	1	-360	360	;
	20	21	0.0011099818	0.0005288510	0	100	100	100	0	0	1	-360	360	;
	21	22	0.0024974591	0.0011899147	0	100	100	100	0	0	1	-360	360	;
	21	23	0.0052724137	0.0025120421	0	100	100	100	0	0	1	-360	360	;
	23	24	0.0052724137	0.0025120421	0	100	100	100	0	0	1	-360	360	;
	24	25	0.0027749546	0.0013221274	0	100	100	100	0	0	1	-360	360	;
	25	26	0.0027749546	0.0013221274	0	100	100	100	0	0	1	-360	360	;
	19	27	0.0077698728	0.0037019568	0	100	100	100	0	0	1	-360	360	;
	27	28	0.0049949182	0.0023798294	0	100	100	100	0	0	1	-360	360	;
	28	29	0.0030524500	0.0014543402	0	100	100	100	0	0	1	-360	360	;
	29	30	0.0024974591	0.0011899147	0	100	100	100	0	0	1	-360	360	;
	30	31	0.0024974591	0.0011899147	0	100	100	100	0	0	1	-360	360	;
	31	32	0.0033299455	0.0015865529	0	100	100	100	0	0	1	-360	360	;
	17	33	0.0027749546	0.0013221274	0	100	100	100	0	0	1	-360	360	;
	33	34	0.0030524500	0.0014543402	0	100	100	100	0	0	1	-360	360	;
	34	35	0.0061049001	0.0029086803	0	100	100	100	0	0	1	-360	360	;
	35	36	0.0033299455	0.0015865529	0	100	100	100	0	0	1	-360	360	;
	33	37	0.0027749546	0.0013221274	0	100	100	100	0	0	1	-360	360	;
	37	38	0.0030524500	0.0014543402	0	100	100	100	0	0	1	-360	360	;
	38	39	0.0036074409	0.0017187657	0	100	100	100	0	0	1	-360	360	;
	4	40	0.0091573501	0.0043630205	0	100	100	100	0	0	1	-360	360	;
	40	41	0.0033299455	0.0015865529	0	100	100	100	0	0	1	-360	360	;
	41	42	0.0027749546	0.0013221274	0	100	100	100	0	0	1	-360	360	;
	42	43	0.0030524500	0.0014543402	0	100	100	100	0	0	1	-360	360	;
	43	44	0.0022199637	0.0010577019	0	100	100	100	0	0	1	-360	360	;
	44	45	0.0033299455	0.0015865529	0	100	100	100	0	0	1	-360	360	;
	45	46	0.0038849364	0.0018509784	0	100	100	100	0	0	1	-360	360	;
	40	47	0.0041624319	0.0019831911	0	100	100	100	0	0	1	-360	360	;
	47	48	0.0027749546	0.0013221274	0	100	100	100	0	0	1	-360	360	;
	48	49	0.0027749546	0.0013221274	0	100	100	100	0	0	1	-360	360	;
	49	50	0.0022199637	0.0010577019	0	100	100	100	0	0	1	-360	360	;
	50	51	0.0027749546	0.0013221274	0	100	100	100	0	0	1	-360	360	;
	51	52	0.0016649727	0.0007932765	0	100	100	100	0	0	1	-360	360	;
	51	53	0.0027749546	0.0013221274	0	100	100	100	0	0	1	-360	360	;
	53	54	0.0027749546	0.0013221274	0	100	100	100	0	0	1	-360	360	;
	54	55	0.0027749546	0.0013221274	0	100	100	100	0	0	1	-360	360	;
];

%%-----  OPF Data  -----%%
%% generator cost data
%	1	startup	shutdown	n	x1	y1	...	xn	yn
%	2	startup	shutdown	n	c(n-1)	...	c0
mpc.gencost = [
	2	0	0	3	0.01	40	0;
];


